! B3LYP 6-311+G(d,p) Opt

* xyz -1 1
   C       -5.16630        0.75924       -0.12139
   H       -4.05690        0.75925       -0.12138
   H       -5.53610       -0.25416       -0.38027
   H       -5.53610        1.49015       -0.86958
  Cl       -5.75896        1.21199        1.49261
  Br       -2.41290       -0.34810       -2.61551
*
