! PBE 6-311++G(d,p) Opt 

! Normalprint
%output
Print[P_Basis] 2
Print[P_MOs] 1
end

* xyz 0 1
   C       -6.16548        0.00075        0.00000
   C       -4.76498       -0.04953        0.00000
   C       -6.90914       -1.17950        0.00000
   C       -6.25917       -2.41774        0.00000
   C       -4.09251       -1.29008        0.00000
   C       -4.85097       -2.48734        0.00000
   H       -6.68147        0.95471        0.00000
   H       -7.99291       -1.13086        0.00000
   H       -6.86226       -3.31789        0.00000
   H       -4.21664        0.88472        0.00000
   C       -4.19197       -3.72935        0.00000
   C       -2.68249       -1.36025        0.00000
   C       -2.78671       -3.80094        0.00000
   H       -4.77396       -4.64423        0.00000
   C       -2.02244       -2.60725        0.00000
   H       -2.10082       -0.44442        0.00000
   C       -2.12989       -5.04706        0.00000
   C       -0.61247       -2.69359        0.00000
   C       -0.73298       -5.11426        0.00000
   C        0.02349       -3.94230        0.00000
   H       -2.69190       -5.97315        0.00000
   H       -0.23257       -6.07646        0.00000
   H        0.00457       -1.80289        0.00000
   H        1.10630       -4.00927        0.00000
*
