# avogadro generated ORCA input file 
# Basic Mode
# 
! RHF def2-SVP Opt Freq

%geom Constraints
 {B 0 2 0.99 C}
 {B 3 1 0.99 C}
 {A 1 0 2 C}
 end
 Scan
 D 2 0 1 3 = 0, 180, 19
 end
end

* xyz 0 1
   O       -3.66652        1.07500       -0.14860
   O       -2.43068        1.41636        0.14860
   H       -4.22966        1.69913        0.37515
   H       -1.86754        0.79223       -0.37515
*