# avogadro generated ORCA input file 
# Basic Mode
# 
! RHF STO-3G Opt

%geom Constraints
   {B 1 2 1.3333333 C}
  end
end

* xyz 0 1
   O       -4.55245        0.87922       -0.04116
   C       -4.51775       -0.33974       -0.01306
   O       -5.61564       -1.10043        0.01605
   O       -3.37835       -1.03731       -0.00854
   C       -5.22955       -2.41946        0.04290
   C       -3.68880       -2.37599        0.02589
   H       -5.62544       -2.94384       -0.85325
   H       -5.60651       -2.90112        0.97063
   H       -3.28385       -2.87766       -0.87918
   H       -3.26490       -2.83520        0.94471
*
