! PBE 6-311++G(d,p) Opt 

! Normalprint
%output
Print[P_Basis] 2
Print[P_MOs] 1
end

* xyz 0 1
  C     -5.983806   -0.070205   -0.082413
  C     -4.600270   -0.118264   -0.013628
  C     -6.762489   -1.289215   -0.112462
  C     -6.138134   -2.526073   -0.072999
  C     -3.896705   -1.390998    0.030385
  C     -4.688863   -2.630941   -0.000203
  H     -6.506529    0.901849   -0.115013
  H     -7.863370   -1.222306   -0.167465
  H     -6.729539   -3.458609   -0.095884
  H     -4.003386    0.810823    0.009334
  C     -4.024300   -3.880223    0.041778
  C     -2.485016   -1.470661    0.101225
  C     -2.596996   -3.971331    0.113628
  H     -4.618640   -4.811152    0.018752
  C     -1.803498   -2.729351    0.144287
  H     -1.890472   -0.539865    0.124206
  C     -1.915477   -5.230020    0.156676
  C     -0.376193   -2.820458    0.216121
  C     -0.503787   -5.309684    0.227490
  C      0.288371   -4.069740    0.258076
  H     -2.510022   -6.160816    0.133720
  H      0.218145   -1.889529    0.239168
  C      0.199781   -6.582418    0.271460
  C      1.737645   -4.174608    0.330823
  C      2.362003   -5.411467    0.370232
  C      1.583320   -6.630477    0.340187
  H     -0.397104   -7.511505    0.248516
  H      2.106045   -7.602530    0.372749
  H      2.329049   -3.242072    0.353719
  H      3.462886   -5.478375    0.425191
*
