! PBE 6-311G(d,p) Opt 

! Normalprint
%output
Print[P_Basis] 2
Print[P_MOs] 1
end

* xyz 0 1
  C     -5.721262   -0.201889   -0.118628
  C     -4.341424   -0.260699   -0.014275
  C     -6.509728   -1.415862   -0.170517
  C     -5.897694   -2.657167   -0.116862
  C     -3.647735   -1.539843    0.046323
  C     -4.450342   -2.775474   -0.006632
  H     -6.235668    0.774110   -0.163336
  H     -7.608191   -1.339143   -0.253770
  H     -6.496058   -3.584702   -0.156382
  H     -3.737940    0.663554    0.025368
  C     -3.799984   -4.028288    0.050570
  C     -2.241893   -1.629405    0.153487
  C     -2.372176   -4.134555    0.159760
  H     -4.401226   -4.954214    0.010754
  C     -1.567386   -2.895639    0.212957
  H     -1.640726   -0.703437    0.193249
  C     -1.708830   -5.394346    0.218320
  C     -0.149943   -2.994317    0.321360
  C     -0.291389   -5.493030    0.326693
  C      0.513405   -4.254114    0.379862
  H     -2.310021   -6.320240    0.178556
  H      0.451239   -2.068422    0.361233
  C      0.383129   -6.759260    0.386046
  C      1.941229   -4.360379    0.488858
  C      2.591601   -5.613200    0.545853
  C      1.788984   -6.848828    0.492972
  H     -0.218049   -7.685227    0.346412
  H      2.542469   -3.434453    0.528710
  C      2.482693   -8.127972    0.553338
  C      4.038977   -5.731506    0.655745
  C      4.651033   -6.972815    0.709131
  C      3.862556   -8.186785    0.657339
  H      4.376978   -9.162784    0.701857
  H      1.879200   -9.052224    0.513809
  H      5.749518   -7.049533    0.792099
  H      4.637345   -4.803972    0.695231
*
